Version 4
SHEET 1 1188 848
WIRE 224 80 192 80
WIRE 352 80 304 80
WIRE 704 96 608 96
WIRE 704 144 704 96
WIRE 192 160 192 80
WIRE 352 160 352 80
WIRE -352 224 -496 224
WIRE -256 224 -352 224
WIRE 128 224 -256 224
WIRE 704 224 416 224
WIRE 832 224 704 224
WIRE 960 224 832 224
WIRE 1072 224 960 224
WIRE 832 240 832 224
WIRE -256 288 -256 224
WIRE 128 320 -192 320
WIRE 608 320 608 176
WIRE 608 320 416 320
WIRE 704 320 608 320
WIRE 832 336 832 320
WIRE -496 352 -496 224
WIRE -48 416 -144 416
WIRE 128 416 -48 416
WIRE 480 416 416 416
WIRE 592 416 560 416
WIRE 704 416 704 320
WIRE 704 416 656 416
WIRE 832 416 832 400
WIRE 832 416 704 416
WIRE 960 416 960 224
WIRE 1072 416 1072 224
WIRE -352 432 -352 224
WIRE -256 448 -256 368
WIRE -192 448 -192 320
WIRE -192 448 -256 448
WIRE 704 464 704 416
WIRE 128 512 48 512
WIRE 464 512 416 512
WIRE -256 560 -256 448
WIRE -144 560 -144 416
WIRE 48 560 48 512
WIRE -48 576 -48 416
WIRE -496 672 -496 432
WIRE -352 672 -352 496
WIRE -352 672 -496 672
WIRE -256 672 -256 624
WIRE -256 672 -352 672
WIRE -144 672 -144 640
WIRE -144 672 -256 672
WIRE -48 672 -48 640
WIRE -48 672 -144 672
WIRE 48 672 48 640
WIRE 48 672 -48 672
WIRE 464 672 464 512
WIRE 464 672 48 672
WIRE 704 672 704 544
WIRE 704 672 464 672
WIRE 960 672 960 480
WIRE 960 672 704 672
WIRE 1072 672 1072 496
WIRE 1072 672 960 672
WIRE 960 704 960 672
FLAG 960 704 0
SYMBOL PowerProducts/LTC3532 272 352 R0
SYMATTR InstName U1
SYMBOL ind 208 96 R270
WINDOW 0 32 56 VTop 2
WINDOW 3 5 56 VBottom 2
SYMATTR InstName L1
SYMATTR Value 4.7µ
SYMATTR SpiceLine Rser=26m
SYMBOL res 32 544 R0
SYMATTR InstName Rt
SYMATTR Value 86.6k
SYMBOL res -160 544 R0
SYMATTR InstName R3
SYMATTR Value 200k
SYMBOL res -272 272 R0
SYMATTR InstName R7
SYMATTR Value 200k
SYMBOL res 464 432 R270
WINDOW 0 32 56 VTop 2
WINDOW 3 0 56 VBottom 2
SYMATTR InstName R6
SYMATTR Value 12.1k
SYMBOL res 688 448 R0
SYMATTR InstName R2
SYMATTR Value 200k
SYMBOL res 816 224 R0
SYMATTR InstName R9
SYMATTR Value 1k
SYMBOL cap 816 336 R0
SYMATTR InstName C4
SYMATTR Value 150p
SYMBOL cap 944 416 R0
SYMATTR InstName C3
SYMATTR Value 47µ
SYMBOL cap -64 576 R0
SYMATTR InstName C6
SYMATTR Value 22n
SYMBOL cap -272 560 R0
SYMATTR InstName C5
SYMATTR Value 4.7n
SYMBOL cap -368 432 R0
SYMATTR InstName C1
SYMATTR Value 4.7µ
SYMBOL cap 656 400 R90
WINDOW 0 0 32 VBottom 2
WINDOW 3 32 32 VTop 2
SYMATTR InstName C2
SYMATTR Value 150p
SYMBOL Misc/battery -496 336 R0
SYMATTR InstName V1
SYMATTR Value {DCV}
SYMBOL res 1056 400 R0
SYMATTR InstName Rload
SYMATTR Value {RLOAD}
SYMBOL res 688 128 R0
SYMATTR InstName R1
SYMATTR Value 300k
SYMBOL res 592 80 R0
SYMATTR InstName R1a
SYMATTR Value {Rv}
TEXT -304 88 Left 2 !.tran 0 3m 1m
TEXT 456 752 Left 2 ;Vout = 1.22V × (R8 + R9 + R5) / R5
TEXT -296 136 Left 2 ;.step param DCV list 2.7 3 3.3
TEXT -424 744 Left 2 ;.step param RLOAD list 1098, 33
TEXT -408 776 Left 2 ;.step param RLOAD list 2.5mA, 2.7mA, 3mA, 40mA, 60mA, 100mA
TEXT -312 176 Left 2 ;.step param DCV list 3 3.7
TEXT -368 712 Left 2 !.PARAM RLOAD 1098
TEXT -368 832 Left 2 ;.step lin param RLOAD 100 1000 450
TEXT -216 16 Left 2 !.param DCV 2.5
TEXT 744 104 Left 2 !.step param Rv 22k 27k 5k
